@<TRIPOS>MOLECULE
*****
 24 24 0 0 0
SMALL
GASTEIGER

@<TRIPOS>ATOM
      1 C          -5.3418    1.2903    0.5532 C.3     1  LIG1       -0.0650
      2 C          -4.5440    2.5914    0.4557 C.3     1  LIG1       -0.0531
      3 H          -6.0673    1.3659    1.3905 H       1  LIG1        0.0230
      4 H          -4.6801    0.4251    0.7583 H       1  LIG1        0.0230
      5 H          -5.9052    1.1115   -0.3872 H       1  LIG1        0.0230
      6 C          -3.5596    2.6176   -0.7452 C.3     1  LIG1       -0.0413
      7 H          -4.0256    2.7572    1.4207 H       1  LIG1        0.0265
      8 H          -5.2772    3.4166    0.3216 H       1  LIG1        0.0265
      9 C          -2.4524    1.5349   -0.6783 C.3     1  LIG1       -0.0502
     10 C          -1.4631    1.8032    0.4687 C.3     1  LIG1       -0.0528
     11 H          -2.8869    0.5196   -0.5829 H       1  LIG1        0.0268
     12 H          -1.8845    1.5494   -1.6351 H       1  LIG1        0.0268
     13 C          -0.8223    3.1890    0.3013 C.3     1  LIG1       -0.0530
     14 H          -0.6673    1.0277    0.4615 H       1  LIG1        0.0265
     15 H          -1.9832    1.7424    1.4476 H       1  LIG1        0.0265
     16 C          -2.8889    4.0048   -0.8911 C.3     1  LIG1       -0.0502
     17 H          -4.1698    2.4400   -1.6587 H       1  LIG1        0.0301
     18 C          -1.8961    4.2853    0.2512 C.3     1  LIG1       -0.0528
     19 H          -3.6596    4.8044   -0.9345 H       1  LIG1        0.0268
     20 H          -2.3280    4.0307   -1.8519 H       1  LIG1        0.0268
     21 H          -2.4285    4.3333    1.2236 H       1  LIG1        0.0265
     22 H          -1.4103    5.2711    0.0874 H       1  LIG1        0.0265
     23 H          -0.2386    3.2079   -0.6458 H       1  LIG1        0.0265
     24 H          -0.1222    3.3853    1.1414 H       1  LIG1        0.0265
@<TRIPOS>BOND
     1     1     2    1
     2     1     3    1
     3     1     4    1
     4     1     5    1
     5     6     2    1
     6     2     7    1
     7     2     8    1
     8     9     6    1
     9    10     9    1
    10     9    11    1
    11     9    12    1
    12    13    10    1
    13    10    14    1
    14    10    15    1
    15     6    16    1
    16     6    17    1
    17    16    18    1
    18    16    19    1
    19    16    20    1
    20    18    13    1
    21    18    21    1
    22    18    22    1
    23    13    23    1
    24    13    24    1
