@<TRIPOS>MOLECULE
*****
 31 32 0 0 0
SMALL
GASTEIGER

@<TRIPOS>ATOM
      1 C          -2.9017    2.8801   -0.1323 C.3     1  LIG1       -0.0530
      2 C          -1.5772    2.1478    0.1066 C.3     1  LIG1       -0.0528
      3 C          -0.5840    3.0562    0.8466 C.3     1  LIG1       -0.0500
      4 H          -1.7615    1.2301    0.7054 H       1  LIG1        0.0265
      5 H          -1.1421    1.8418   -0.8708 H       1  LIG1        0.0265
      6 C          -0.3251    4.3553    0.0401 C.3     1  LIG1       -0.0382
      7 H           0.3523    2.4791    0.9832 H       1  LIG1        0.0268
      8 H          -0.9993    3.3019    1.8475 H       1  LIG1        0.0268
      9 C          -2.6588    4.1566   -0.9450 C.3     1  LIG1       -0.0528
     10 C          -1.6708    5.0766   -0.2151 C.3     1  LIG1       -0.0500
     11 H          -3.6219    4.6895   -1.0980 H       1  LIG1        0.0265
     12 H          -2.2471    3.8890   -1.9431 H       1  LIG1        0.0265
     13 H          -2.1247    5.3893    0.7505 H       1  LIG1        0.0268
     14 H          -1.5056    5.9856   -0.8331 H       1  LIG1        0.0268
     15 H          -3.3633    3.1415    0.8455 H       1  LIG1        0.0265
     16 H          -3.6026    2.2154   -0.6816 H       1  LIG1        0.0265
     17 C           0.6934    5.3317    0.6999 C.3     1  LIG1       -0.0382
     18 H           0.1011    4.0651   -0.9470 H       1  LIG1        0.0303
     19 C           2.0901    4.7617    0.9628 C.3     1  LIG1       -0.0500
     20 C           0.3366    5.8726    2.0897 C.3     1  LIG1       -0.0500
     21 H           0.8092    6.2000    0.0077 H       1  LIG1        0.0303
     22 C           1.5985    6.6582    2.4134 C.3     1  LIG1       -0.0528
     23 H           0.2243    5.0390    2.8179 H       1  LIG1        0.0268
     24 H          -0.5723    6.5096    2.1171 H       1  LIG1        0.0268
     25 C           2.7458    5.7614    1.9313 C.3     1  LIG1       -0.0528
     26 H           1.7009    7.0300    3.4545 H       1  LIG1        0.0265
     27 H           1.5761    7.5522    1.7468 H       1  LIG1        0.0265
     28 H           3.2032    5.1851    2.7661 H       1  LIG1        0.0265
     29 H           3.5242    6.3981    1.4579 H       1  LIG1        0.0265
     30 H           2.6964    4.5133    0.0665 H       1  LIG1        0.0268
     31 H           1.9628    3.8263    1.5472 H       1  LIG1        0.0268
@<TRIPOS>BOND
     1     2     1    1
     2     3     2    1
     3     2     4    1
     4     2     5    1
     5     6     3    1
     6     3     7    1
     7     3     8    1
     8     1     9    1
     9     9    10    1
    10     9    11    1
    11     9    12    1
    12    10     6    1
    13    10    13    1
    14    10    14    1
    15     1    15    1
    16     1    16    1
    17    17     6    1
    18     6    18    1
    19    17    19    1
    20    17    20    1
    21    17    21    1
    22    20    22    1
    23    20    23    1
    24    20    24    1
    25    22    25    1
    26    22    26    1
    27    22    27    1
    28    25    19    1
    29    25    28    1
    30    25    29    1
    31    19    30    1
    32    19    31    1
