@<TRIPOS>MOLECULE
*****
 16 17 0 0 0
SMALL
GASTEIGER

@<TRIPOS>ATOM
      1 C          -3.0693    2.8105    0.0031 C.3     1  LIG1       -0.0497
      2 C          -1.5778    2.9299   -0.2097 C.3     1  LIG1       -0.0382
      3 C          -0.6263    3.2158    0.9496 C.3     1  LIG1       -0.0382
      4 C          -2.5205    3.9648   -0.7769 C.3     1  LIG1       -0.0497
      5 H          -3.4645    3.0104    0.9923 H       1  LIG1        0.0268
      6 H          -3.5967    2.0336   -0.5379 H       1  LIG1        0.0268
      7 H          -2.5567    4.9447   -0.3158 H       1  LIG1        0.0268
      8 H          -2.6717    3.9749   -1.8500 H       1  LIG1        0.0268
      9 H          -1.1688    2.2264   -0.9368 H       1  LIG1        0.0303
     10 C           0.0115    4.5657    1.1790 C.3     1  LIG1       -0.0497
     11 C           0.8550    3.4146    0.7256 C.3     1  LIG1       -0.0497
     12 H          -0.8743    2.6596    1.8553 H       1  LIG1        0.0303
     13 H           1.2230    3.4274   -0.2938 H       1  LIG1        0.0268
     14 H           1.5386    2.9703    1.4397 H       1  LIG1        0.0268
     15 H           0.1179    4.9058    2.2025 H       1  LIG1        0.0268
     16 H          -0.1790    5.3595    0.4665 H       1  LIG1        0.0268
@<TRIPOS>BOND
     1     2     1    1
     2     3     2    1
     3     1     4    1
     4     1     5    1
     5     1     6    1
     6     4     2    1
     7     4     7    1
     8     4     8    1
     9     2     9    1
    10    10     3    1
    11    11     3    1
    12     3    12    1
    13    11    10    1
    14    11    13    1
    15    11    14    1
    16    10    15    1
    17    10    16    1
