@<TRIPOS>MOLECULE
*****
 24 24 0 0 0
SMALL
GASTEIGER

@<TRIPOS>ATOM
      1 C          -5.8134    2.7469   -0.0243 C.3     1  LIG11      -0.0530
      2 C          -5.0969    1.4259    0.1961 C.3     1  LIG11      -0.0528
      3 C          -3.5816    1.4025    0.1302 C.3     1  LIG11      -0.0502
      4 H          -5.4164    1.0028    1.1572 H       1  LIG11       0.0265
      5 H          -5.4690    0.7109   -0.5514 H       1  LIG11       0.0265
      6 C          -2.8250    2.7140    0.3589 C.3     1  LIG11      -0.0413
      7 H          -3.3034    0.9970   -0.8535 H       1  LIG11       0.0268
      8 H          -3.2195    0.6631    0.8562 H       1  LIG11       0.0268
      9 C          -1.3782    2.4664   -0.1355 C.3     1  LIG11      -0.0531
     10 C          -0.3810    3.5977    0.0278 C.3     1  LIG11      -0.0650
     11 H          -0.4393    4.0541    1.0212 H       1  LIG11       0.0230
     12 H          -0.5232    4.3689   -0.7324 H       1  LIG11       0.0230
     13 H           0.6332    3.1995   -0.0997 H       1  LIG11       0.0230
     14 H          -1.4025    2.1979   -1.2039 H       1  LIG11       0.0265
     15 H          -0.9820    1.5903    0.3892 H       1  LIG11       0.0265
     16 C          -4.9914    4.0279   -0.0378 C.3     1  LIG1       -0.0528
     17 H          -6.5854    2.8448    0.7516 H       1  LIG1        0.0265
     18 H          -6.3816    2.6810   -0.9621 H       1  LIG1        0.0265
     19 C          -3.4991    3.9000   -0.3244 C.3     1  LIG1       -0.0502
     20 H          -5.1272    4.5356    0.9272 H       1  LIG1        0.0265
     21 H          -5.4306    4.7068   -0.7804 H       1  LIG1        0.0265
     22 H          -2.7959    2.9169    1.4426 H       1  LIG1        0.0301
     23 H          -3.0183    4.8298    0.0044 H       1  LIG1        0.0268
     24 H          -3.3449    3.8453   -1.4112 H       1  LIG1        0.0268
@<TRIPOS>BOND
     1     1     2    1
     2     3     2    1
     3     2     4    1
     4     2     5    1
     5     6     3    1
     6     3     7    1
     7     3     8    1
     8     9     6    1
     9    10     9    1
    10    10    11    1
    11    10    12    1
    12    10    13    1
    13     9    14    1
    14     9    15    1
    15     1    16    1
    16     1    17    1
    17     1    18    1
    18    16    19    1
    19    16    20    1
    20    16    21    1
    21     6    19    1
    22     6    22    1
    23    19    23    1
    24    19    24    1
