@<TRIPOS>MOLECULE
*****
 65 69 0 0 0
SMALL
GASTEIGER

@<TRIPOS>ATOM
      1 C           6.3989    2.5762   -7.0327 C.3     1  LIG1       -0.0651
      2 C           6.9874    2.8097   -5.6449 C.3     1  LIG1       -0.0513
      3 C           7.1513    1.4806   -4.9259 C.3     1  LIG1       -0.0018
      4 C           7.8281    1.5084   -3.5539 C.3     1  LIG1        0.1610
      5 H           8.8835    1.2344   -3.6640 H       1  LIG1        0.0910
      6 O           7.1806    0.4933   -2.7943 O.3     1  LIG1       -0.3448
      7 C           6.8619    1.0634   -1.5461 C.3     1  LIG1        0.0984
      8 H           5.8340    0.7939   -1.2948 H       1  LIG1        0.0630
      9 C           7.8127    0.4888   -0.5065 C.3     1  LIG1       -0.0196
     10 C           7.8696    1.5852    0.5527 C.3     1  LIG1       -0.0268
     11 H           8.7422    1.4208    1.1891 H       1  LIG1        0.0311
     12 C           6.5719    1.6104    1.4160 C.3     1  LIG1       -0.0310
     13 H           5.7270    1.6741    0.7289 H       1  LIG1        0.0308
     14 C           6.3259    0.3044    2.1844 C.3     1  LIG1       -0.0458
     15 C           7.2745    0.1617    3.3561 C.3     1  LIG1       -0.0302
     16 C           6.9821    1.2926    4.3001 C.2     1  LIG1       -0.0559
     17 C           6.4933    0.9955    5.5176 C.2     1  LIG1       -0.0149
     18 C           6.0390    2.0374    6.4544 C.2     1  LIG1        0.1787
     19 O           5.6270    1.7562    7.5686 O.2     1  LIG1       -0.2879
     20 C           6.0729    3.4268    5.9665 C.2     1  LIG1       -0.0180
     21 C           6.5703    3.7276    4.7586 C.2     1  LIG1       -0.0701
     22 C           7.1603    2.7284    3.7557 C.3     1  LIG1        0.0131
     23 C           6.4325    2.8518    2.3457 C.3     1  LIG1        0.0007
     24 H           5.3632    2.8777    2.6202 H       1  LIG1        0.0340
     25 C           6.6182    4.1247    1.4737 C.3     1  LIG1        0.0600
     26 H           5.7232    4.2266    0.8512 H       1  LIG1        0.0596
     27 C           7.8244    4.1201    0.5309 C.3     1  LIG1       -0.0177
     28 C           8.0650    2.8570   -0.3317 C.3     1  LIG1        0.0121
     29 C           7.1273    2.5715   -1.5963 C.3     1  LIG1        0.1637
     30 O           7.7865    2.7577   -2.8692 O.3     1  LIG1       -0.3342
     31 C           5.9198    3.5213   -1.7033 C.2     1  LIG1        0.1931
     32 O           6.0612    4.7315   -1.9313 O.2     1  LIG1       -0.2918
     33 C           4.5069    2.9955   -1.4979 C.3     1  LIG1        0.1053
     34 O           3.5443    4.0366   -1.6279 O.3     1  LIG1       -0.3874
     35 C           9.5469    2.9671   -0.7997 C.3     1  LIG1       -0.0561
     36 O           6.6833    5.3139    2.2470 O.3     1  LIG1       -0.3914
     37 C           8.6648    3.0450    3.6976 C.3     1  LIG1       -0.0520
     38 H           6.1657    3.5271   -7.5195 H       1  LIG1        0.0230
     39 H           5.4758    1.9879   -6.9775 H       1  LIG1        0.0230
     40 H           7.1060    2.0310   -7.6673 H       1  LIG1        0.0230
     41 H           6.3085    3.4539   -5.0749 H       1  LIG1        0.0264
     42 H           7.9481    3.3261   -5.7336 H       1  LIG1        0.0264
     43 H           7.7142    0.7805   -5.5592 H       1  LIG1        0.0314
     44 H           6.1577    1.0198   -4.8305 H       1  LIG1        0.0314
     45 H           8.8048    0.2998   -0.9348 H       1  LIG1        0.0294
     46 H           7.4769   -0.4877   -0.1545 H       1  LIG1        0.0294
     47 H           6.3948   -0.5743    1.5394 H       1  LIG1        0.0271
     48 H           5.2874    0.3047    2.5468 H       1  LIG1        0.0271
     49 H           8.3220    0.1731    3.0412 H       1  LIG1        0.0310
     50 H           7.1046   -0.8143    3.8268 H       1  LIG1        0.0310
     51 H           6.3592   -0.0229    5.8662 H       1  LIG1        0.0655
     52 H           5.6966    4.1801    6.6477 H       1  LIG1        0.0653
     53 H           6.6079    4.7817    4.4997 H       1  LIG1        0.0582
     54 H           8.7132    4.2984    1.1518 H       1  LIG1        0.0297
     55 H           7.7874    5.0115   -0.1094 H       1  LIG1        0.0297
     56 H           4.3987    2.6047   -0.4884 H       1  LIG1        0.0637
     57 H           4.2801    2.2240   -2.2349 H       1  LIG1        0.0637
     58 H           4.0494    4.8743   -1.7047 H       1  LIG1        0.2100
     59 H          10.2300    3.0062    0.0572 H       1  LIG1        0.0236
     60 H           9.7008    3.8815   -1.3850 H       1  LIG1        0.0236
     61 H           9.8665    2.1249   -1.4193 H       1  LIG1        0.0236
     62 H           5.7719    5.6031    2.4305 H       1  LIG1        0.2098
     63 H           9.1391    2.8838    4.6750 H       1  LIG1        0.0241
     64 H           8.8513    4.0906    3.4303 H       1  LIG1        0.0241
     65 H           9.2027    2.4184    2.9847 H       1  LIG1        0.0241
@<TRIPOS>BOND
     1     1     2    1
     2     2     3    1
     3     4     6    1
     4     6     7    1
     5     7     9    1
     6     9    10    1
     7    10    12    1
     8    12    14    1
     9    14    15    1
    10    15    16    1
    11    16    17    2
    12    17    18    1
    13    18    20    1
    14    20    21    2
    15    21    22    1
    16    16    22    1
    17    22    23    1
    18    12    23    1
    19    23    25    1
    20    25    27    1
    21    27    28    1
    22    10    28    1
    23    28    29    1
    24     7    29    1
    25    29    30    1
    26     4    30    1
    27    31    32    2
    28    31    33    1
    29    33    34    1
    30     3     4    1
    31     4     5    1
    32     7     8    1
    33    10    11    1
    34    12    13    1
    35    18    19    2
    36    22    37    1
    37    23    24    1
    38    28    35    1
    39    29    31    1
    40    25    36    1
    41    25    26    1
    42     1    38    1
    43     1    39    1
    44     1    40    1
    45     2    41    1
    46     2    42    1
    47     3    43    1
    48     3    44    1
    49     9    45    1
    50     9    46    1
    51    14    47    1
    52    14    48    1
    53    15    49    1
    54    15    50    1
    55    17    51    1
    56    20    52    1
    57    21    53    1
    58    27    54    1
    59    27    55    1
    60    33    56    1
    61    33    57    1
    62    34    58    1
    63    35    59    1
    64    35    60    1
    65    35    61    1
    66    36    62    1
    67    37    63    1
    68    37    64    1
    69    37    65    1
