@<TRIPOS>MOLECULE
*****
 63 66 0 0 0
SMALL
GASTEIGER

@<TRIPOS>ATOM
      1 C           1.0393    0.0815   -0.1009 C.3     1  LIG1       -0.0649
      2 C           2.5602    0.0281   -0.1157 C.3     1  LIG1       -0.0504
      3 C           3.1142   -0.9852    0.8956 C.3     1  LIG1       -0.0069
      4 C           4.6045   -1.1071    0.8714 C.ar    1  LIG1        0.0871
      5 N           5.3679   -0.0012    0.8164 N.ar    1  LIG1       -0.1736
      6 N           6.6385   -0.4681    0.7935 N.ar    1  LIG1       -0.2598
      7 C           6.7060   -1.8264    0.8136 C.ar    1  LIG1        0.1512
      8 C           5.4175   -2.2612    0.9083 C.ar    1  LIG1        0.0947
      9 N           5.1719   -3.5790    1.0031 N.ar    1  LIG1       -0.3361
     10 C           6.2794   -4.4242    0.8649 C.ar    1  LIG1        0.1462
     11 N           7.5169   -4.0301    0.7422 N.ar    1  LIG1       -0.1893
     12 C           7.8452   -2.6887    0.7738 C.ar    1  LIG1        0.2992
     13 O           8.9964   -2.2770    0.7455 O.2     1  LIG1       -0.2634
     14 C           6.0164   -5.9123    0.7905 C.ar    1  LIG1        0.0608
     15 C           6.8440   -6.8878    1.3711 C.ar    1  LIG1        0.1312
     16 C           6.4803   -8.2404    1.2514 C.ar    1  LIG1       -0.0174
     17 C           5.3340   -8.6239    0.5412 C.ar    1  LIG1       -0.0319
     18 C           4.5522   -7.6560   -0.0869 C.ar    1  LIG1        0.1064
     19 C           4.9092   -6.3171    0.0306 C.ar    1  LIG1       -0.0212
     20 S           3.1857   -8.1757   -1.1113 S.O2    1  LIG1        0.0610
     21 O           3.7023   -8.2164   -2.4611 O.2     1  LIG1       -0.1528
     22 O           2.6385   -9.3583   -0.4772 O.2     1  LIG1       -0.1528
     23 N           1.9932   -6.9904   -1.0493 N.3     1  LIG1       -0.1741
     24 C           1.0158   -6.9678    0.0456 C.3     1  LIG1        0.0333
     25 C           1.4954   -5.9785    1.1019 C.3     1  LIG1        0.0131
     26 N           1.5971   -4.5879    0.6116 N.3     1  LIG1       -0.3028
     27 C           2.0845   -4.4656   -0.7874 C.3     1  LIG1        0.0131
     28 C           2.1202   -5.6948   -1.7449 C.3     1  LIG1        0.0333
     29 C           0.3015   -3.9170    0.7508 C.3     1  LIG1       -0.0127
     30 O           7.9584   -6.4609    2.0392 O.3     1  LIG1       -0.4915
     31 C           8.9488   -7.4325    2.3721 C.3     1  LIG1        0.0868
     32 C          10.2331   -6.7085    2.7341 C.3     1  LIG1       -0.0307
     33 C           7.7405    0.4643    0.7774 C.3     1  LIG1        0.0311
     34 H           0.6804    0.8835   -0.7541 H       1  LIG1        0.0230
     35 H           0.6583    0.2697    0.9078 H       1  LIG1        0.0230
     36 H           0.6111   -0.8562   -0.4651 H       1  LIG1        0.0230
     37 H           2.9441    1.0308    0.1076 H       1  LIG1        0.0266
     38 H           2.8992   -0.2232   -1.1283 H       1  LIG1        0.0266
     39 H           2.6751   -1.9641    0.6894 H       1  LIG1        0.0329
     40 H           2.8005   -0.7032    1.9079 H       1  LIG1        0.0329
     41 H           4.2472   -3.9557    1.1947 H       1  LIG1        0.1674
     42 H           7.0810   -9.0299    1.6946 H       1  LIG1        0.0655
     43 H           5.0915   -9.6815    0.4458 H       1  LIG1        0.0638
     44 H           4.3741   -5.5717   -0.5228 H       1  LIG1        0.0645
     45 H           0.8549   -7.9589    0.4765 H       1  LIG1        0.0456
     46 H           0.0424   -6.6606   -0.3608 H       1  LIG1        0.0456
     47 H           2.4808   -6.2867    1.4664 H       1  LIG1        0.0439
     48 H           0.8405   -6.0364    1.9803 H       1  LIG1        0.0439
     49 H           3.0994   -4.0640   -0.7192 H       1  LIG1        0.0439
     50 H           1.5640   -3.6515   -1.3104 H       1  LIG1        0.0439
     51 H           3.0348   -5.6610   -2.3478 H       1  LIG1        0.0456
     52 H           1.2852   -5.6162   -2.4502 H       1  LIG1        0.0456
     53 H          -0.0880   -4.0177    1.7698 H       1  LIG1        0.0391
     54 H          -0.4433   -4.3073    0.0500 H       1  LIG1        0.0391
     55 H           0.4155   -2.8445    0.5773 H       1  LIG1        0.0391
     56 H           9.1572   -8.1037    1.5299 H       1  LIG1        0.0694
     57 H           8.6012   -8.0115    3.2344 H       1  LIG1        0.0694
     58 H          10.6784   -6.2555    1.8417 H       1  LIG1        0.0262
     59 H          10.9596   -7.4031    3.1662 H       1  LIG1        0.0262
     60 H          10.0432   -5.8984    3.4448 H       1  LIG1        0.0262
     61 H           7.3518    1.4865    0.7767 H       1  LIG1        0.0473
     62 H           8.3297    0.2930   -0.1262 H       1  LIG1        0.0473
     63 H           8.3415    0.3017    1.6753 H       1  LIG1        0.0473
@<TRIPOS>BOND
     1     1     2    1
     2     2     3    1
     3     3     4    1
     4     4     5   ar
     5     5     6   ar
     6     6     7   ar
     7     7     8   ar
     8     4     8   ar
     9     8     9   ar
    10     9    10   ar
    11    10    11   ar
    12    11    12   ar
    13     7    12   ar
    14    12    13    2
    15    10    14    1
    16    14    15   ar
    17    15    16   ar
    18    16    17   ar
    19    17    18   ar
    20    18    19   ar
    21    14    19   ar
    22    18    20    1
    23    20    21    2
    24    20    22    2
    25    20    23    1
    26    23    24    1
    27    24    25    1
    28    25    26    1
    29    26    27    1
    30    27    28    1
    31    23    28    1
    32    26    29    1
    33    15    30    1
    34    30    31    1
    35    31    32    1
    36     6    33    1
    37     1    34    1
    38     1    35    1
    39     1    36    1
    40     2    37    1
    41     2    38    1
    42     3    39    1
    43     3    40    1
    44     9    41    1
    45    16    42    1
    46    17    43    1
    47    19    44    1
    48    24    45    1
    49    24    46    1
    50    25    47    1
    51    25    48    1
    52    27    49    1
    53    27    50    1
    54    28    51    1
    55    28    52    1
    56    29    53    1
    57    29    54    1
    58    29    55    1
    59    31    56    1
    60    31    57    1
    61    32    58    1
    62    32    59    1
    63    32    60    1
    64    33    61    1
    65    33    62    1
    66    33    63    1
