@<TRIPOS>MOLECULE
*****
 20 19 0 0 0
SMALL
GASTEIGER

@<TRIPOS>ATOM
      1 C          -6.0630    1.1243    0.0038 C.3     1  LIG1       -0.0653
      2 C          -4.9309    2.1474   -0.0176 C.3     1  LIG1       -0.0559
      3 H          -7.0405    1.6502   -0.0275 H       1  LIG1        0.0230
      4 H          -6.0160    0.5162    0.9323 H       1  LIG1        0.0230
      5 H          -5.9927    0.4516   -0.8774 H       1  LIG1        0.0230
      6 C          -3.5617    1.4588    0.0208 C.3     1  LIG1       -0.0533
      7 H          -5.0376    2.8183    0.8625 H       1  LIG1        0.0263
      8 H          -5.0160    2.7571   -0.9435 H       1  LIG1        0.0263
      9 C          -2.4274    2.4905    0.0039 C.3     1  LIG1       -0.0533
     10 H          -3.4635    0.7900   -0.8627 H       1  LIG1        0.0265
     11 H          -3.4846    0.8446    0.9451 H       1  LIG1        0.0265
     12 C          -1.0578    1.8022    0.0325 C.3     1  LIG1       -0.0559
     13 H          -2.5235    3.1552    0.8907 H       1  LIG1        0.0265
     14 H          -2.5069    3.1090   -0.9174 H       1  LIG1        0.0265
     15 C           0.0734    2.8263    0.0204 C.3     1  LIG1       -0.0653
     16 H           0.0069    3.4852    0.9123 H       1  LIG1        0.0230
     17 H           0.0214    3.4488   -0.8982 H       1  LIG1        0.0230
     18 H           1.0515    2.3009    0.0388 H       1  LIG1        0.0230
     19 H          -0.9535    1.1419   -0.8560 H       1  LIG1        0.0263
     20 H          -0.9696    1.1815    0.9507 H       1  LIG1        0.0263
@<TRIPOS>BOND
     1     1     2    1
     2     1     3    1
     3     1     4    1
     4     1     5    1
     5     6     2    1
     6     2     7    1
     7     2     8    1
     8     9     6    1
     9     6    10    1
    10     6    11    1
    11    12     9    1
    12     9    13    1
    13     9    14    1
    14    15    12    1
    15    15    16    1
    16    15    17    1
    17    15    18    1
    18    12    19    1
    19    12    20    1
